*Heading
** Job name: FEA Model name: MODEL1
** Generated by: Abaqus/CAE 2024
*Preprint, echo=NO, model=NO, history=NO, contact=NO
**
** PARTS
**
*Part, name=DiT
*Node
      1,   43.8403053,  -19.4373074,           5.
      2,   43.8403053,  -20.9607449,           5.
      3,   43.8403053,  -21.7224636,           5.
      4,   43.8403053,  -22.4841824,           5.
      5,   43.8403053,   -23.245903,           5.
      6,   43.8403053,  -24.7693405,           5.
      7,   43.8403053,  -25.5310593,           5.
      8,   43.8403053,   -26.292778,           5.
      9,   43.8403053,  -27.0544968,           5.
     10,   43.8403053,  -28.5779343,           5.
     11,   43.8403053,   -29.339653,           5.
     12,   43.8403053,  -30.1013718,           5.
     13,   43.8403053,  -30.8630905,           5.
     14,   43.8403053,   -32.386528,           5.
     15,   43.8403053,  -33.1482468,           5.
     16,   43.8403053,  -18.6755886,           5.
     17,   43.8403053,  -33.9099655,           5.
     18,   43.5526848,  -18.6417694,           5.
     19,   43.2814484,   -18.578228,           5.
     20,   43.0250168,   -18.487606,           5.
** ... 39382 like lines cut
*Element, type=C3D8R
    1,   891,   890,  6070,  6080, 20592, 20591, 25771, 25781
    2,  6080, 12310,   892,   891, 25781, 32011, 20593, 20592
    3,  6087,  6072,   889,   888, 25788, 25773, 20590, 20589
    4,  6072,  6070,   890,   889, 25773, 25771, 20591, 20590
    5,  8149, 11898,    15, 12310, 27850, 31599, 19716, 32011
    6, 10230, 12058, 11776,  8751, 29931, 31759, 31477, 28452
    7,  3674,  6784,  1988,  1987, 23375, 26485, 21689, 21688
    8,  6605,  6613,  6607,  8509, 26306, 26314, 26308, 28210
    9,  1988,  6784,  6607,  1989, 21689, 26485, 26308, 21690
   10, 17177,  1991,  1990,  6613, 36878, 21692, 21691, 26314
   11,  9348, 17177,  6613,  6605, 29049, 36878, 26314, 26306
   12,  3667,  1992,  1991, 17177, 23368, 21693, 21692, 36878
   13,  3667, 13059,  3666, 13791, 23368, 32760, 23367, 33492
   14, 17023,   884,   883,  8213, 36724, 20585, 20584, 27914
   15,  9854, 11162,  9803,  6168, 29555, 30863, 29504, 25869
   16, 17023, 17022,   885,   884, 36724, 36723, 20586, 20585
   17, 17022,  8181,   886,   885, 36723, 27882, 20587, 20586
   18,   887,   886,  8181,  6106, 20588, 20587, 27882, 25807
   19,   888,   887,  6106,  6087, 20589, 20588, 25807, 25788
   20, 12058,  3673, 12871, 12920, 31759, 23374, 32572, 32621
** ... 17819 like lines cut
*Nset, nset=_PickedSet5, internal, generate
     1,  39402,      1
*Elset, elset=_PickedSet5, internal, generate
     1,  17839,      1
** Section: SteelSection
*Solid Section, elset=_PickedSet5, controls=EC-1, material=Steel
,
*End Part
**  
**
** ASSEMBLY
**
*Assembly, name=Assembly
**  
*Instance, name=DiT-1, part=DiT
*End Instance
**  
*Node
      1,   -6.1597023,   58.2775459,          2.5
*Node
      2,   -6.1597023,  -41.7224655,          2.5
*Nset, nset=RP_Top
 1,
*Nset, nset=_PickedSet46, internal
 2,
*Nset, nset=_PickedSet48, internal
 1,
*Nset, nset=_PickedSet49, internal
 1,
*Nset, nset=_PickedSet51, internal
 2,
*Nset, nset=_PickedSet52, internal, instance=DiT-1, generate
     1,  39402,      1
*Elset, elset=_PickedSet52, internal, instance=DiT-1, generate
     1,  17839,      1
*Elset, elset=__PickedSurf45_S5, internal, instance=DiT-1
  1445,  1448,  1608,  1618,  1633,  1667,  1740,  1857,  1929,  1955,  1969,  4316,  6157,  6919, 11649, 11697
 11759,
*Elset, elset=__PickedSurf45_S4, internal, instance=DiT-1
  1414,  1739,  1753,  1755,  1937,  1972,  6161,  6923,  6924,  9542, 11974, 13659, 15127, 16735
*Elset, elset=__PickedSurf45_S3, internal, instance=DiT-1
  1412,  1432,  1443,  1446,  1594,  1609,  1830,  1839,  1848,  1942,  1943,  1947,  1950,  3529,  6922,  7124
  7992, 10366, 13015
*Elset, elset=__PickedSurf45_S6, internal, instance=DiT-1
 1429, 1437, 1438, 1450, 1466, 1705, 1754, 1829, 1951, 1966, 1971, 2000, 6147, 6920, 6921
*Surface, type=ELEMENT, name=_PickedSurf45, internal
__PickedSurf45_S5, S5
__PickedSurf45_S4, S4
__PickedSurf45_S6, S6
__PickedSurf45_S3, S3
*Elset, elset=__PickedSurf47_S6, internal, instance=DiT-1
   525,   552,   579,   591,   785,   856,   859,   880,   978,   981,   982,   985,  1002,  5572,  6907,  8671
 16733,
*Elset, elset=__PickedSurf47_S4, internal, instance=DiT-1
   526,   563,   860,   868,   870,   980,   986,  6903, 13173
*Elset, elset=__PickedSurf47_S3, internal, instance=DiT-1
   556,   560,   667,   678,   821,   822,   882,   884,   983,   988,  3334,  7993, 11519, 13017, 14769, 16737
*Elset, elset=__PickedSurf47_S5, internal, instance=DiT-1
   575,   677,   724,   759,   857,   883,   895,   987,  1000,  5574,  5691,  5716,  6900,  6901,  6902,  6905
 11647, 11750, 11971, 12794, 14768, 16946, 17043
*Surface, type=ELEMENT, name=_PickedSurf47, internal
__PickedSurf47_S6, S6
__PickedSurf47_S4, S4
__PickedSurf47_S3, S3
__PickedSurf47_S5, S5
** Constraint: BottomCoupling
*Coupling, constraint name=BottomCoupling, ref node=_PickedSet46, surface=_PickedSurf45
*Kinematic
** Constraint: TopCoupling
*Coupling, constraint name=TopCoupling, ref node=_PickedSet48, surface=_PickedSurf47
*Kinematic
*End Assembly
** 
** ELEMENT CONTROLS
** 
*Section Controls, name=EC-1, ELEMENT DELETION=YES, MAX DEGRADATION=0.1
1., 1., 1.
*Amplitude, name=LoadAmplitude
             0.,              0.,              1.,            0.25,              2.,              0.,              3.,           -0.25
             4.,              0.,              5.,             0.5,              6.,              0.,              7.,            -0.5
             8.,              0.,              9.,              1.,             10.,              0.,             11.,             -1.
            12.,              0.,             13.,              2.,             14.,              0.,             15.,             -2.
            16.,              0.,             17.,              3.,             18.,              0.,             19.,             -3.
            20.,              0.,             21.,              4.,             22.,              0.,             23.,             -4.
            24.,              0.,             25.,              5.,             26.,              0.,             27.,             -5.
            28.,              0.,             29.,              6.,             30.,              0.,             31.,             -6.
            32.,              0.,             33.,              7.,             34.,              0.,             35.,             -7.
            36.,              0.,             37.,              8.,             38.,              0.,             39.,             -8.
            40.,              0.,             41.,              9.,             42.,              0.,             43.,             -9.
            44.,              0.,             45.,             10.,             46.,              0.,             47.,            -10.
            48.,              0.
** 
** MATERIALS
** 
*Material, name=Steel
*Damage Initiation, criterion=SHEAR, ks=0.3
 2.25,    2., 0.001
*Damage Evolution, type=DISPLACEMENT
 1.25,
*Density
 7.8e-09,
*Elastic
206000., 0.3
*Plastic, hardening=COMBINED, datatype=PARAMETERS, number backstresses=4
275.,30000., 1000.,15000.,  100.,  600.,   20.,  350.
   10.,
*Cyclic Hardening, parameters
275., 40., 1.2
** 
** BOUNDARY CONDITIONS
** 
** Name: FixBottomRP Type: Displacement/Rotation
*Boundary
_PickedSet51, 1, 1
_PickedSet51, 2, 2
_PickedSet51, 3, 3
_PickedSet51, 4, 4
_PickedSet51, 5, 5
_PickedSet51, 6, 6
** Name: RestrictZIntermediateNodes Type: Displacement/Rotation
*Boundary
_PickedSet52, 3, 3
_PickedSet52, 4, 4
_PickedSet52, 5, 5
** ----------------------------------------------------------------
** 
** STEP: Step1
** 
*Step, name=Step1, nlgeom=YES, inc=200000
*Static, stabilize=0.0001, allsdtol=0.025, continue=NO
0.01, 48., 1e-10, 0.1
** 
** BOUNDARY CONDITIONS
** 
** Name: LoadTopRP Type: Displacement/Rotation
*Boundary, amplitude=LoadAmplitude
_PickedSet49, 1, 1, 1.
_PickedSet49, 2, 2
_PickedSet49, 3, 3
_PickedSet49, 4, 4
_PickedSet49, 5, 5
_PickedSet49, 6, 6
** 
** CONTROLS
** 
*Controls, reset
*Controls, parameters=time incrementation
, , , , , , , 20, , , 
*Controls, parameters=field, field=displacement
0.01, 0.02, , , 0.04, 0.0001, 0.002, 1e-06
, 0.0001, 1e-06
*Controls, parameters=field, field=hydrostatic fluid pressure
0.01, 0.02, , , 0.04, 0.0001, 0.002, 1e-06
, 0.0001
*Controls, parameters=field, field=rotation
0.01, 0.02, , , 0.04, 0.0001, 0.002, 1e-06
, 0.0001
*Controls, parameters=field, field=electrical potential
0.01, 0.02, , , 0.04, 0.0001, 0.002, 1e-06
, 0.0001
** 
** OUTPUT REQUESTS
** 
*Restart, write, frequency=0
** 
** FIELD OUTPUT: MisesAndDisplacement
** 
*Output, field
*Node Output
U, 
*Element Output, directions=YES
S, SDEG, STATUS
** 
** FIELD OUTPUT: RP_Top_Output
** 
*Node Output, nset=RP_Top
RF, U
** 
** HISTORY OUTPUT: H-Output-1
** 
*Output, history, variable=PRESELECT, frequency=10
*End Step
